data_5-TOPOS_VESTA_phase_1
_audit_creation_date                2021-09-17
_audit_creation_method              ToposPro
_chemical_formula_structural        VESTA_phase_1
_chemical_formula_sum               'H0 C8 I4 N2 Sn1'
_citation_special_details
;
File: 2_vesta.cif. 
;
_cell_length_a                      8.837
_cell_length_b                      8.6191
_cell_length_c                      27.562
_cell_angle_alpha                   90
_cell_angle_beta                    90
_cell_angle_gamma                   90
_cell_volume                        2099.314
_cell_formula_units_Z               4
_symmetry_space_group_name_H-M      'P b c a'
_symmetry_Int_Tables_number         61
_refine_ls_R_factor_all             0
loop_
_symmetry_equiv_pos_site_id
_symmetry_equiv_pos_as_xyz
1 x,y,z
2 1/2-x,-y,1/2+z
3 1/2+x,1/2-y,-z
4 -x,1/2+y,1/2-z
5 -x,-y,-z
6 1/2+x,y,1/2-z
7 1/2-x,1/2+y,z
8 x,1/2-y,1/2+z
loop_
_atom_site_label
_atom_site_type_symbol
_atom_site_symmetry_multiplicity
_atom_site_fract_x
_atom_site_fract_y
_atom_site_fract_z
_atom_site_occupancy
H1 H 8 0.83712 0.48637 0.11030 1.0000
H2 H 8 0.09733 0.55767 0.18250 1.0000
H3 H 8 0.76731 0.67150 0.17618 1.0000
H4 H 8 0.81542 0.63822 0.26757 1.0000
H5 H 8 0.98358 0.51428 0.25076 1.0000
H6 H 8 0.18115 0.47588 0.09353 1.0000
H7 H 8 0.07321 0.32000 0.09623 1.0000
H8 H 8 0.05438 0.44313 0.05082 1.0000
C1 C 8 0.95000 0.53100 0.11800 1.0000
C2 C 8 0.98700 0.51000 0.17300 1.0000
C3 C 8 0.85700 0.60600 0.19400 1.0000
C4 C 8 0.88700 0.58500 0.24000 1.0000
N1 N 8 0.07700 0.43300 0.08660 1.0000
Sn1 Sn 4 0.00000 0.00000 0.00000 1.0000
I1 I 8 0.03760 0.01330 0.11400 1.0000
I2 I 8 0.20810 0.70630 0.99380 1.0000
#End of data_5-TOPOS_VESTA_phase_1

