#======================================================================

# CRYSTAL DATA

#----------------------------------------------------------------------

data_VESTA_phase_1


_chemical_name_common                  ''
_cell_length_a                         8.722(1)
_cell_length_b                         8.2716(4)
_cell_length_c                         28.0140(5)
_cell_angle_alpha                      90
_cell_angle_beta                       90
_cell_angle_gamma                      90
_space_group_name_H-M_alt              'P c m n'
_space_group_IT_number                 62

loop_
_space_group_symop_operation_xyz
   'x, y, z'
   '-x, -y, -z'
   'x+1/2, -y, -z+1/2'
   '-x+1/2, y, z+1/2'
   '-x, y+1/2, -z'
   'x, -y+1/2, z'
   '-x+1/2, -y+1/2, z+1/2'
   'x+1/2, y+1/2, -z+1/2'

loop_
   _atom_site_label
   _atom_site_occupancy
   _atom_site_fract_x
   _atom_site_fract_y
   _atom_site_fract_z
   _atom_site_adp_type
   _atom_site_B_iso_or_equiv
   _atom_site_type_symbol
   Ge         1.0     0.50950(10)   0.250000      0.2478(2)    Biso  5.300000 Ge
   I(1)       1.0     0.44580(10)   0.250000      0.1420(2)    Biso  6.950000 I
   I(2)       1.0     0.73320(4)    0.49690(10)   0.23800(10)  Biso  6.760000 I
   I(3)       1.0     0.54620(6)    0.250000      0.3564(2)    Biso  7.200000 I
   N(1)       1.0     0.4480(10)    0.750000      0.164(3)     Biso 11.500000 N
   N(2)       1.0     0.0430(10)    0.250000      0.165(4)     Biso 12.300000 N
   C(1)       1.0     0.562(3)      0.750000      0.123(8)     Biso 20.000000 C
   C(2)       1.0     0.514(3)      0.750000      0.082(8)     Biso 20.000000 C
   C(3)       1.0     0.640(3)      0.750000      0.045(10)    Biso 23.000000 C
   C(4)       1.0     0.596(3)      0.750000      0.007(8)     Biso 23.000000 C
   C(5)       1.0     0.925(2)      0.250000      0.126(6)     Biso 16.000000 C
   C(6)       1.0     0.982(2)      0.250000      0.082(6)     Biso 16.000000 C
   C(7)       1.0     0.857(3)      0.250000      0.047(9)     Biso 24.000000 C
   C(8)       1.0     0.904(3)      0.250000      0.006(8)     Biso 22.000000 C
